Version 4
SHEET 1 4452 872
WIRE 3904 -960 3760 -960
WIRE 2048 -864 1904 -864
WIRE 3760 -864 3760 -960
WIRE 192 -784 48 -784
WIRE 1904 -768 1904 -864
WIRE 48 -688 48 -784
WIRE 3152 -688 3056 -688
WIRE 3280 -688 3152 -688
WIRE 3520 -688 3344 -688
WIRE 3056 -672 3056 -688
WIRE 3520 -608 3520 -688
WIRE 3520 -608 3472 -608
WIRE 1296 -592 1200 -592
WIRE 1424 -592 1296 -592
WIRE 1664 -592 1488 -592
WIRE 3520 -592 3520 -608
WIRE 3904 -592 3904 -960
WIRE 4064 -592 3904 -592
WIRE 1200 -576 1200 -592
WIRE 3152 -576 3152 -688
WIRE 3184 -576 3152 -576
WIRE 3472 -576 3472 -608
WIRE 3472 -576 3440 -576
WIRE 3520 -576 3520 -592
WIRE 4064 -576 4064 -592
WIRE 3904 -544 3904 -592
WIRE 4032 -528 3936 -528
WIRE -560 -512 -656 -512
WIRE -432 -512 -560 -512
WIRE -192 -512 -368 -512
WIRE 1664 -512 1664 -592
WIRE 1664 -512 1616 -512
WIRE 3808 -512 3456 -512
WIRE -656 -496 -656 -512
WIRE 1664 -496 1664 -512
WIRE 2048 -496 2048 -864
WIRE 2208 -496 2048 -496
WIRE 3184 -496 2736 -496
WIRE 3456 -496 3456 -512
WIRE 3456 -496 3440 -496
WIRE 1296 -480 1296 -592
WIRE 1328 -480 1296 -480
WIRE 1616 -480 1616 -512
WIRE 1616 -480 1584 -480
WIRE 1664 -480 1664 -496
WIRE 2208 -480 2208 -496
WIRE 3808 -464 3808 -512
WIRE 3856 -464 3808 -464
WIRE 2048 -448 2048 -496
WIRE 3936 -448 3936 -464
WIRE 4144 -448 3936 -448
WIRE -192 -432 -192 -512
WIRE -192 -432 -240 -432
WIRE 2176 -432 2080 -432
WIRE 2736 -432 2736 -496
WIRE 3904 -432 3904 -448
WIRE -192 -416 -192 -432
WIRE 192 -416 192 -784
WIRE 352 -416 192 -416
WIRE 1952 -416 1600 -416
WIRE 3184 -416 3120 -416
WIRE 3520 -416 3520 -528
WIRE 3520 -416 3440 -416
WIRE 3856 -416 3856 -432
WIRE 3856 -416 3520 -416
WIRE -560 -400 -560 -512
WIRE -528 -400 -560 -400
WIRE -240 -400 -240 -432
WIRE -240 -400 -272 -400
WIRE -192 -400 -192 -416
WIRE 352 -400 352 -416
WIRE 1328 -400 880 -400
WIRE 1600 -400 1600 -416
WIRE 1600 -400 1584 -400
WIRE 3120 -400 3120 -416
WIRE 3872 -400 3872 -432
WIRE 3888 -400 3888 -432
WIRE 3888 -400 3872 -400
WIRE 3904 -400 3904 -432
WIRE 3904 -400 3888 -400
WIRE 3920 -400 3920 -432
WIRE 3920 -400 3904 -400
WIRE 3936 -400 3936 -432
WIRE 3936 -400 3920 -400
WIRE 4064 -400 4064 -512
WIRE 4064 -400 3936 -400
WIRE 192 -368 192 -416
WIRE 1952 -368 1952 -416
WIRE 2000 -368 1952 -368
WIRE 320 -352 224 -352
WIRE 2080 -352 2080 -368
WIRE 2288 -352 2080 -352
WIRE 96 -336 -256 -336
WIRE 880 -336 880 -400
WIRE 2048 -336 2048 -352
WIRE -528 -320 -976 -320
WIRE -256 -320 -256 -336
WIRE -256 -320 -272 -320
WIRE 1328 -320 1264 -320
WIRE 1664 -320 1664 -432
WIRE 1664 -320 1584 -320
WIRE 2000 -320 2000 -336
WIRE 2000 -320 1664 -320
WIRE 1264 -304 1264 -320
WIRE 2016 -304 2016 -336
WIRE 2032 -304 2032 -336
WIRE 2032 -304 2016 -304
WIRE 2048 -304 2048 -336
WIRE 2048 -304 2032 -304
WIRE 2064 -304 2064 -336
WIRE 2064 -304 2048 -304
WIRE 2080 -304 2080 -336
WIRE 2080 -304 2064 -304
WIRE 2208 -304 2208 -416
WIRE 2208 -304 2080 -304
WIRE 96 -288 96 -336
WIRE 144 -288 96 -288
WIRE 224 -272 224 -288
WIRE 432 -272 224 -272
WIRE 2736 -272 2736 -352
WIRE 2752 -272 2736 -272
WIRE -976 -256 -976 -320
WIRE 192 -256 192 -272
WIRE -528 -240 -592 -240
WIRE -192 -240 -192 -352
WIRE -192 -240 -272 -240
WIRE 144 -240 144 -256
WIRE 144 -240 -192 -240
WIRE 2752 -240 2752 -272
WIRE -592 -224 -592 -240
WIRE 160 -224 160 -256
WIRE 176 -224 176 -256
WIRE 176 -224 160 -224
WIRE 192 -224 192 -256
WIRE 192 -224 176 -224
WIRE 208 -224 208 -256
WIRE 208 -224 192 -224
WIRE 224 -224 224 -256
WIRE 224 -224 208 -224
WIRE 352 -224 352 -336
WIRE 352 -224 224 -224
WIRE 880 -176 880 -256
WIRE 896 -176 880 -176
WIRE 3904 -160 3904 -400
WIRE 4400 -160 3904 -160
WIRE 896 -144 896 -176
WIRE -976 -96 -976 -176
WIRE -960 -96 -976 -96
WIRE -960 -64 -960 -96
WIRE 2048 -64 2048 -304
WIRE 2544 -64 2048 -64
WIRE 3152 -48 3056 -48
WIRE 3280 -48 3152 -48
WIRE 3520 -48 3344 -48
WIRE 3056 -32 3056 -48
WIRE 192 16 192 -224
WIRE 688 16 192 16
WIRE 3904 32 3904 -160
WIRE 4080 32 3904 32
WIRE 1296 48 1200 48
WIRE 1424 48 1296 48
WIRE 1664 48 1488 48
WIRE 1200 64 1200 48
WIRE 3152 64 3152 -48
WIRE 3184 64 3152 64
WIRE 3520 64 3520 -48
WIRE 3520 64 3440 64
WIRE 3904 96 3904 32
WIRE 4080 96 4080 32
WIRE 3712 112 3632 112
WIRE 4032 112 3936 112
WIRE -560 128 -656 128
WIRE -432 128 -560 128
WIRE -192 128 -368 128
WIRE 2048 128 2048 -64
WIRE 2224 128 2048 128
WIRE 3712 128 3712 112
WIRE 3808 128 3712 128
WIRE -656 144 -656 128
WIRE 3184 144 2736 144
WIRE 3632 144 3632 112
WIRE 3632 144 3440 144
WIRE 1296 160 1296 48
WIRE 1328 160 1296 160
WIRE 1664 160 1664 48
WIRE 1664 160 1584 160
WIRE 3808 176 3808 128
WIRE 3856 176 3808 176
WIRE 2048 192 2048 128
WIRE 2224 192 2224 128
WIRE 3936 192 3936 176
WIRE 4144 192 3936 192
WIRE 192 208 192 16
WIRE 368 208 192 208
WIRE 1856 208 1776 208
WIRE 2176 208 2080 208
WIRE 2736 208 2736 144
WIRE 3904 208 3904 192
WIRE 1856 224 1856 208
WIRE 1952 224 1856 224
WIRE 3184 224 3120 224
WIRE 3520 224 3520 128
WIRE 3520 224 3440 224
WIRE 3856 224 3856 208
WIRE 3856 224 3520 224
WIRE -560 240 -560 128
WIRE -528 240 -560 240
WIRE -192 240 -192 128
WIRE -192 240 -272 240
WIRE 1328 240 880 240
WIRE 1776 240 1776 208
WIRE 1776 240 1584 240
WIRE 3120 240 3120 224
WIRE 3872 240 3872 208
WIRE 3888 240 3888 208
WIRE 3888 240 3872 240
WIRE 3904 240 3904 208
WIRE 3904 240 3888 240
WIRE 3920 240 3920 208
WIRE 3920 240 3904 240
WIRE 3936 240 3936 208
WIRE 3936 240 3920 240
WIRE 4080 240 4080 160
WIRE 4080 240 3936 240
WIRE 3520 256 3520 224
WIRE 192 272 192 208
WIRE 368 272 368 208
WIRE 1952 272 1952 224
WIRE 2000 272 1952 272
WIRE 3904 272 3904 240
WIRE 0 288 -80 288
WIRE 320 288 224 288
WIRE 2080 288 2080 272
WIRE 2288 288 2080 288
WIRE 0 304 0 288
WIRE 96 304 0 304
WIRE 880 304 880 240
WIRE 2048 304 2048 288
WIRE -528 320 -976 320
WIRE -80 320 -80 288
WIRE -80 320 -272 320
WIRE 1328 320 1264 320
WIRE 1664 320 1664 224
WIRE 1664 320 1584 320
WIRE 2000 320 2000 304
WIRE 2000 320 1664 320
WIRE 1264 336 1264 320
WIRE 2016 336 2016 304
WIRE 2032 336 2032 304
WIRE 2032 336 2016 336
WIRE 2048 336 2048 304
WIRE 2048 336 2032 336
WIRE 2064 336 2064 304
WIRE 2064 336 2048 336
WIRE 2080 336 2080 304
WIRE 2080 336 2064 336
WIRE 2224 336 2224 256
WIRE 2224 336 2080 336
WIRE 96 352 96 304
WIRE 144 352 96 352
WIRE 1664 352 1664 320
WIRE 224 368 224 352
WIRE 432 368 224 368
WIRE 2048 368 2048 336
WIRE 2736 368 2736 288
WIRE 2752 368 2736 368
WIRE -976 384 -976 320
WIRE 192 384 192 368
WIRE -528 400 -592 400
WIRE -192 400 -192 304
WIRE -192 400 -272 400
WIRE 144 400 144 384
WIRE 144 400 -192 400
WIRE 2752 400 2752 368
WIRE -592 416 -592 400
WIRE 160 416 160 384
WIRE 176 416 176 384
WIRE 176 416 160 416
WIRE 192 416 192 384
WIRE 192 416 176 416
WIRE 208 416 208 384
WIRE 208 416 192 416
WIRE 224 416 224 384
WIRE 224 416 208 416
WIRE 368 416 368 336
WIRE 368 416 224 416
WIRE -192 432 -192 400
WIRE 192 448 192 416
WIRE 880 464 880 384
WIRE 896 464 880 464
WIRE 896 496 896 464
WIRE -976 544 -976 464
WIRE -960 544 -976 544
WIRE -960 576 -960 544
FLAG 192 448 0
FLAG -960 576 0
FLAG 432 448 0
FLAG -592 416 0
FLAG -656 224 0
FLAG -192 432 0
FLAG -960 -64 0
FLAG 432 -192 0
FLAG -592 -224 0
FLAG -656 -416 0
FLAG 688 96 0
FLAG 48 -608 0
FLAG 2048 368 0
FLAG 896 496 0
FLAG 2288 368 0
FLAG 1264 336 0
FLAG 1200 144 0
FLAG 1664 352 0
FLAG 896 -144 0
FLAG 2288 -272 0
FLAG 1264 -304 0
FLAG 1200 -496 0
FLAG 2544 16 0
FLAG 1904 -688 0
FLAG 3904 272 0
FLAG 2752 400 0
FLAG 4144 272 0
FLAG 3120 240 0
FLAG 3056 48 0
FLAG 3520 256 0
FLAG 2752 -240 0
FLAG 4144 -368 0
FLAG 3120 -400 0
FLAG 3056 -592 0
FLAG 4400 -80 0
FLAG 3760 -784 0
SYMBOL nmos_TO263_7L 144 272 R0
SYMATTR InstName U1
SYMATTR Value C3M0065090J
SYMBOL voltage -976 368 R0
WINDOW 123 0 0 Left 2
WINDOW 39 0 0 Left 2
SYMATTR InstName V1
SYMATTR Value PULSE(0 5 0 1ns 1ns {D/fs} {1/fs})
SYMBOL voltage 432 352 R0
WINDOW 123 0 0 Left 2
WINDOW 39 0 0 Left 2
SYMATTR InstName V3
SYMATTR Value 25
SYMBOL LTC4440 -400 320 R0
SYMATTR InstName U2
SYMBOL cap -208 240 R0
SYMATTR InstName C1
SYMATTR Value 10µF
SYMBOL diode -432 144 R270
WINDOW 0 32 32 VTop 2
WINDOW 3 0 32 VBottom 2
SYMATTR InstName D2
SYMBOL voltage -656 128 R0
WINDOW 123 0 0 Left 2
WINDOW 39 0 0 Left 2
SYMATTR InstName V4
SYMATTR Value 15
SYMBOL nmos_TO263_7L 144 -368 R0
SYMATTR InstName U3
SYMATTR Value C3M0065090J
SYMBOL voltage -976 -272 R0
WINDOW 123 0 0 Left 2
WINDOW 39 0 0 Left 2
SYMATTR InstName V2
SYMATTR Value PULSE(0 5 {1/(2*fs)} 1ns 1ns {D/fs} {1/fs})
SYMBOL voltage 432 -288 R0
WINDOW 123 0 0 Left 2
WINDOW 39 0 0 Left 2
SYMATTR InstName V5
SYMATTR Value 25
SYMBOL LTC4440 -400 -320 R0
SYMATTR InstName U4
SYMBOL cap -208 -416 R0
SYMATTR InstName C2
SYMATTR Value 10µF
SYMBOL diode -432 -496 R270
WINDOW 0 32 32 VTop 2
WINDOW 3 0 32 VBottom 2
SYMATTR InstName D1
SYMBOL voltage -656 -512 R0
WINDOW 123 0 0 Left 2
WINDOW 39 0 0 Left 2
SYMATTR InstName V6
SYMATTR Value 15
SYMBOL res 672 0 R0
SYMATTR InstName R1
SYMATTR Value 30
SYMBOL voltage 48 -704 R0
WINDOW 123 0 0 Left 2
WINDOW 39 0 0 Left 2
SYMATTR InstName V7
SYMATTR Value 600
SYMBOL diode 384 336 R180
WINDOW 0 24 64 Left 2
WINDOW 3 24 0 Left 2
SYMATTR InstName D3
SYMBOL diode 368 -336 R180
WINDOW 0 24 64 Left 2
WINDOW 3 24 0 Left 2
SYMATTR InstName D4
SYMBOL nmos_TO263_7L 2000 192 R0
SYMATTR InstName U5
SYMATTR Value C3M0065090J
SYMBOL voltage 880 288 R0
WINDOW 123 0 0 Left 2
WINDOW 39 0 0 Left 2
SYMATTR InstName V8
SYMATTR Value PULSE(0 5 {1/(3*fs)} 1ns 1ns {D/fs} {1/fs})
SYMBOL voltage 2288 272 R0
WINDOW 123 0 0 Left 2
WINDOW 39 0 0 Left 2
SYMATTR InstName V9
SYMATTR Value 25
SYMBOL LTC4440 1456 240 R0
SYMATTR InstName U6
SYMBOL cap 1648 160 R0
SYMATTR InstName C3
SYMATTR Value 10µF
SYMBOL diode 1424 64 R270
WINDOW 0 32 32 VTop 2
WINDOW 3 0 32 VBottom 2
SYMATTR InstName D5
SYMBOL voltage 1200 48 R0
WINDOW 123 0 0 Left 2
WINDOW 39 0 0 Left 2
SYMATTR InstName V10
SYMATTR Value 15
SYMBOL nmos_TO263_7L 2000 -448 R0
SYMATTR InstName U7
SYMATTR Value C3M0065090J
SYMBOL voltage 880 -352 R0
WINDOW 123 0 0 Left 2
WINDOW 39 0 0 Left 2
SYMATTR InstName V11
SYMATTR Value PULSE(0 5 {5/(6*fs)} 1ns 1ns {D/fs} {1/fs})
SYMBOL voltage 2288 -368 R0
WINDOW 123 0 0 Left 2
WINDOW 39 0 0 Left 2
SYMATTR InstName V12
SYMATTR Value 25
SYMBOL LTC4440 1456 -400 R0
SYMATTR InstName U8
SYMBOL cap 1648 -496 R0
SYMATTR InstName C4
SYMATTR Value 10µF
SYMBOL diode 1424 -576 R270
WINDOW 0 32 32 VTop 2
WINDOW 3 0 32 VBottom 2
SYMATTR InstName D6
SYMBOL voltage 1200 -592 R0
WINDOW 123 0 0 Left 2
WINDOW 39 0 0 Left 2
SYMATTR InstName V13
SYMATTR Value 15
SYMBOL res 2528 -80 R0
SYMATTR InstName R2
SYMATTR Value 30
SYMBOL voltage 1904 -784 R0
WINDOW 123 0 0 Left 2
WINDOW 39 0 0 Left 2
SYMATTR InstName V14
SYMATTR Value 600
SYMBOL diode 2240 256 R180
WINDOW 0 24 64 Left 2
WINDOW 3 24 0 Left 2
SYMATTR InstName D7
SYMBOL diode 2224 -416 R180
WINDOW 0 24 64 Left 2
WINDOW 3 24 0 Left 2
SYMATTR InstName D8
SYMBOL nmos_TO263_7L 3856 96 R0
SYMATTR InstName U9
SYMATTR Value C3M0065090J
SYMBOL voltage 2736 192 R0
WINDOW 123 0 0 Left 2
WINDOW 39 0 0 Left 2
SYMATTR InstName V15
SYMATTR Value PULSE(0 5 {2/(3*fs)} 1ns 1ns {D/fs} {1/fs})
SYMBOL voltage 4144 176 R0
WINDOW 123 0 0 Left 2
WINDOW 39 0 0 Left 2
SYMATTR InstName V16
SYMATTR Value 25
SYMBOL LTC4440 3312 144 R0
SYMATTR InstName U10
SYMBOL cap 3504 64 R0
SYMATTR InstName C5
SYMATTR Value 10µF
SYMBOL diode 3280 -32 R270
WINDOW 0 32 32 VTop 2
WINDOW 3 0 32 VBottom 2
SYMATTR InstName D9
SYMBOL voltage 3056 -48 R0
WINDOW 123 0 0 Left 2
WINDOW 39 0 0 Left 2
SYMATTR InstName V17
SYMATTR Value 15
SYMBOL nmos_TO263_7L 3856 -544 R0
SYMATTR InstName U11
SYMATTR Value C3M0065090J
SYMBOL voltage 2736 -448 R0
WINDOW 123 0 0 Left 2
WINDOW 39 0 0 Left 2
SYMATTR InstName V18
SYMATTR Value PULSE(0 5 {1/(6*fs)} 1ns 1ns {D/fs} {1/fs})
SYMBOL voltage 4144 -464 R0
WINDOW 123 0 0 Left 2
WINDOW 39 0 0 Left 2
SYMATTR InstName V19
SYMATTR Value 25
SYMBOL LTC4440 3312 -496 R0
SYMATTR InstName U12
SYMBOL cap 3504 -592 R0
SYMATTR InstName C6
SYMATTR Value 10µF
SYMBOL diode 3280 -672 R270
WINDOW 0 32 32 VTop 2
WINDOW 3 0 32 VBottom 2
SYMATTR InstName D10
SYMBOL voltage 3056 -688 R0
WINDOW 123 0 0 Left 2
WINDOW 39 0 0 Left 2
SYMATTR InstName V20
SYMATTR Value 15
SYMBOL res 4384 -176 R0
SYMATTR InstName R3
SYMATTR Value 30
SYMBOL voltage 3760 -880 R0
WINDOW 123 0 0 Left 2
WINDOW 39 0 0 Left 2
SYMATTR InstName V21
SYMATTR Value 600
SYMBOL diode 4096 160 R180
WINDOW 0 24 64 Left 2
WINDOW 3 24 0 Left 2
SYMATTR InstName D11
SYMBOL diode 4080 -512 R180
WINDOW 0 24 64 Left 2
WINDOW 3 24 0 Left 2
SYMATTR InstName D12
TEXT -992 792 Left 2 !.tran 1
TEXT -1008 856 Left 2 !.lib /Applications/LTspice.app/Contents/lib/sub/C3M0065090J-Packaged.lib
TEXT -760 -48 Left 2 !.param D 0.5\n.param fs 83333.33
